energy: -20.760429867882 gnorm: 0.000437149890 xtb: 6.5.0 (746241f)
 OpenBabel05012317513D

 16 16  0  0  0  0  0  0  0  0999 V2000
   12.7925   -3.3261    3.2863 N   0  0  0  0  0  0  0  0  0  0  0  0
   13.2589   -3.8438    2.1169 C   0  0  0  0  0  0  0  0  0  0  0  0
   12.1871   -4.0096    1.2917 C   0  0  0  0  0  0  0  0  0  0  0  0
   11.0847   -3.5906    1.9692 N   0  0  0  0  0  0  0  0  0  0  0  0
   11.4755   -3.1805    3.1747 C   0  0  0  0  0  3  0  0  0  0  0  0
   13.6001   -2.9889    4.4273 C   0  0  0  0  0  0  0  0  0  0  0  0
    9.7334   -3.5903    1.4743 C   0  0  0  0  0  0  0  0  0  0  0  0
   14.2957   -4.0556    1.9518 H   0  0  0  0  0  0  0  0  0  0  0  0
   12.1434   -4.3906    0.2917 H   0  0  0  0  0  0  0  0  0  0  0  0
   10.8256   -2.7939    3.9363 H   0  0  0  0  0  0  0  0  0  0  0  0
   14.2196   -3.8401    4.7099 H   0  0  0  0  0  0  0  0  0  0  0  0
   12.9642   -2.7157    5.2663 H   0  0  0  0  0  0  0  0  0  0  0  0
   14.2551   -2.1493    4.1895 H   0  0  0  0  0  0  0  0  0  0  0  0
    9.7183   -3.9824    0.4602 H   0  0  0  0  0  0  0  0  0  0  0  0
    9.3307   -2.5771    1.4678 H   0  0  0  0  0  0  0  0  0  0  0  0
    9.0973   -4.2131    2.1039 H   0  0  0  0  0  0  0  0  0  0  0  0
  1  6  1  0  0  0  0
  2  1  1  0  0  0  0
  3  4  1  0  0  0  0
  3  2  2  0  0  0  0
  4  5  1  0  0  0  0
  5  1  1  0  0  0  0
  5 10  1  0  0  0  0
  6 11  1  0  0  0  0
  6 12  1  0  0  0  0
  7  4  1  0  0  0  0
  7 16  1  0  0  0  0
  8  2  1  0  0  0  0
  9  3  1  0  0  0  0
 13  6  1  0  0  0  0
 14  7  1  0  0  0  0
 15  7  1  0  0  0  0
M  END
